/*--------------------------------*- C++ -*----------------------------------*\
| =========                 |                                                 |
| \\      /  F ield         | OpenFOAM: The Open Source CFD Toolbox           |
|  \\    /   O peration     | Version:  v2306                                 |
|   \\  /    A nd           | Website:  www.openfoam.com                      |
|    \\/     M anipulation  |                                                 |
\*---------------------------------------------------------------------------*/
FoamFile
{
    version     2.0;
    format      ascii;
    class       dictionary;
    object      blockMeshDict;
}
// * * * * * * * * * * * * * * * * * * * * * * * * * * * * * * * * * * * * * //

scale   1;

vertices
(
    (0 0 0)			//0
    (0 0 3.1416)		//1
    (3.1416 0 3.1416)		//2
    (3.1416 0 0)		//3
    (0 3.1416 0)		//4
    (0 3.1416 3.1416)		//5
    (3.1416 3.1416 3.1416)	//6
    (3.1416 3.1416 0)		//7
    (-3.1416 0 0)		//8
    (-3.1416 0 3.1416)		//9
    (-3.1416 3.1416 3.1416)	//10
    (-3.1416 3.1416 0)		//11
    (0 0 -3.1416)		//12
    (0 3.1416 -3.1416)		//13
    (3.1416 3.1416 -3.1416)	//14
    (3.1416 0 -3.1416)		//15
    (-3.1416 0 -3.1416)		//16
    (-3.1416 3.1416 -3.1416)	//17
    (0 -3.1416 0)		//18
    (3.1416 -3.1416 0)		//19
    (3.1416 -3.1416 3.1416)	//20
    (0 -3.1416 3.1416)		//21
    (-3.1416 -3.1416 3.1416)	//22
    (-3.1416 -3.1416 0)		//23
    (0 -3.1416 -3.1416)		//24
    (3.1416 -3.1416 -3.1416)	//25
    (-3.1416 -3.1416 -3.1416)	//26
);

blocks
(
    hex (4 7 6 5 0 3 2 1)		(75 75 75) simpleGrading (-10 -10 10)		//1
    hex (11 4 5 10 8 0 1 9)		(75 75 75) simpleGrading (10 -10 10)		//2
    hex (13 14 7 4 12 15 3 0)		(75 75 75) simpleGrading (-10 10 10)		//3
    hex (17 13 4 11 16 12 0 8)		(75 75 75) simpleGrading (10 10 10)		//4
    hex (0 3 2 1 18 19 20 21)		(75 75 75) simpleGrading (-10 -10 -10)		//5
    hex (8 0 1 9 23 18 21 22)		(75 75 75) simpleGrading (10 -10 -10)		//6
    hex (12 15 3 0 24 25 19 18)		(75 75 75) simpleGrading (-10 10 -10)		//7
    hex (16 12 0 8 26 24 18 23)		(75 75 75) simpleGrading (10 10 -10)		//8
);

edges
(
);

boundary
(
    top
    {
        type            patch;
        faces
        (
        	(1 2 6 5)
        	(9 1 5 10)
        	(2 1 21 20)
        	(1 9 22 21)
        );
    }
    
    bottom
    {
        type            patch;
        faces
        (
        	(12 13 14 15)
        	(16 17 13 12)
        	(12 15 25 24)
        	(16 12 24 26)
        );
    }
    
    wall
    {
        type            patch;
        faces
        (
        	(2 3 7 6)
        	(4 5 6 7)
        	(11 10 5 4)
        	(8 9 10 11)
        	(3 15 14 7)
        	(4 7 14 13)
        	(4 13 17 11)
        	(8 11 17 16)
        	(18 19 20 21)
        	(3 2 20 19)
        	(9 8 23 22)
        	(18 21 22 23)
        	(19 18 24 25)
        	(3 19 25 15)
        	(8 16 26 23)
        	(24 18 23 26)
        );
    }
);


// ************************************************************************* //
